
data_
_chemical_name_mineral ?Cs2LiY(BH4)6?
_cell_length_a 11.25215(19)
_cell_length_b 11.25215(19)
_cell_length_c 11.25215(19)
_cell_angle_alpha 90
_cell_angle_beta 90
_cell_angle_gamma 90
_cell_volume 1424.65(7)
_symmetry_space_group_name_H-M F_m_-3
loop_
	_symmetry_equiv_pos_as_xyz
	 'x, y, z '
	 '-x, -y, z '
	 '-x, y, -z '
	 '-x, y, z '
	 '-y, -z, -x '
	 '-y, -z, x '
	 '-y, z, -x '
	 '-y, z, x '
	 '-z, -x, -y '
	 '-z, -x, y '
	 '-z, x, -y '
	 '-z, x, y '
	 'z, -x, -y '
	 'z, -x, y '
	 'z, x, -y '
	 'z, x, y '
	 'y, -z, -x '
	 'y, -z, x '
	 'y, z, -x '
	 'y, z, x '
	 'x, -y, -z '
	 'x, -y, z '
	 'x, y, -z '
	 '-x, -y, -z '
	 'x+1/2, y+1/2, z '
	 '-x+1/2, -y+1/2, z '
	 '-x+1/2, y+1/2, -z '
	 '-x+1/2, y+1/2, z '
	 '-y+1/2, -z+1/2, -x '
	 '-y+1/2, -z+1/2, x '
	 '-y+1/2, z+1/2, -x '
	 '-y+1/2, z+1/2, x '
	 '-z+1/2, -x+1/2, -y '
	 '-z+1/2, -x+1/2, y '
	 '-z+1/2, x+1/2, -y '
	 '-z+1/2, x+1/2, y '
	 'z+1/2, -x+1/2, -y '
	 'z+1/2, -x+1/2, y '
	 'z+1/2, x+1/2, -y '
	 'z+1/2, x+1/2, y '
	 'y+1/2, -z+1/2, -x '
	 'y+1/2, -z+1/2, x '
	 'y+1/2, z+1/2, -x '
	 'y+1/2, z+1/2, x '
	 'x+1/2, -y+1/2, -z '
	 'x+1/2, -y+1/2, z '
	 'x+1/2, y+1/2, -z '
	 '-x+1/2, -y+1/2, -z '
	 'x+1/2, y, z+1/2 '
	 '-x+1/2, -y, z+1/2 '
	 '-x+1/2, y, -z+1/2 '
	 '-x+1/2, y, z+1/2 '
	 '-y+1/2, -z, -x+1/2 '
	 '-y+1/2, -z, x+1/2 '
	 '-y+1/2, z, -x+1/2 '
	 '-y+1/2, z, x+1/2 '
	 '-z+1/2, -x, -y+1/2 '
	 '-z+1/2, -x, y+1/2 '
	 '-z+1/2, x, -y+1/2 '
	 '-z+1/2, x, y+1/2 '
	 'z+1/2, -x, -y+1/2 '
	 'z+1/2, -x, y+1/2 '
	 'z+1/2, x, -y+1/2 '
	 'z+1/2, x, y+1/2 '
	 'y+1/2, -z, -x+1/2 '
	 'y+1/2, -z, x+1/2 '
	 'y+1/2, z, -x+1/2 '
	 'y+1/2, z, x+1/2 '
	 'x+1/2, -y, -z+1/2 '
	 'x+1/2, -y, z+1/2 '
	 'x+1/2, y, -z+1/2 '
	 '-x+1/2, -y, -z+1/2 '
	 'x, y+1/2, z+1/2 '
	 '-x, -y+1/2, z+1/2 '
	 '-x, y+1/2, -z+1/2 '
	 '-x, y+1/2, z+1/2 '
	 '-y, -z+1/2, -x+1/2 '
	 '-y, -z+1/2, x+1/2 '
	 '-y, z+1/2, -x+1/2 '
	 '-y, z+1/2, x+1/2 '
	 '-z, -x+1/2, -y+1/2 '
	 '-z, -x+1/2, y+1/2 '
	 '-z, x+1/2, -y+1/2 '
	 '-z, x+1/2, y+1/2 '
	 'z, -x+1/2, -y+1/2 '
	 'z, -x+1/2, y+1/2 '
	 'z, x+1/2, -y+1/2 '
	 'z, x+1/2, y+1/2 '
	 'y, -z+1/2, -x+1/2 '
	 'y, -z+1/2, x+1/2 '
	 'y, z+1/2, -x+1/2 '
	 'y, z+1/2, x+1/2 '
	 'x, -y+1/2, -z+1/2 '
	 'x, -y+1/2, z+1/2 '
	 'x, y+1/2, -z+1/2 '
	 '-x, -y+1/2, -z+1/2 '
loop_
_atom_site_label
_atom_site_type_symbol
_atom_site_symmetry_multiplicity
_atom_site_fract_x
_atom_site_fract_y
_atom_site_fract_z
_atom_site_occupancy
_atom_site_B_iso_or_equiv
Cs1 Cs   0 0.25 0.25 0.25 1 3.250(17)
Y1a Y   0 0 0 0 1 1.84(2)
Li2a Li   0 0.5 0.5 0.5 1 1.84(2)
B1 B   0 0.5 0 0.2508(2) 1 1.72(11)
H11 H   0 0.5824(5) 0.0000001720(11) 0.3091(4) 0.5 0.0(4)
H13 H   0 0.5 -0.0824(5) 0.1925(4) 0.5 0.0(4)