#CIF file of Li5(BH4)3NH
#
# This CIF contains data generated by qe2cif.sh program
# Copyright 2016 Carlo Nervi - Dept. of Chemistry, Torino, Italy
# Structure No. 136 from QE output file Li5_Topas_ecut60_opt_XX.out
#
data_Li5_Topas_ecut60_optd_XX
_audit_creation_date 2016-09-20
_audit_creation_method 'qe2cif.sh Version 0.2'
_symmetry_space_group_name_H-M 'PNMA'
_symmetry_Int_Tables_number 62
_symmetry_cell_setting orthorhombic
loop_
_symmetry_equiv_pos_as_xyz
 x,y,z
 -x+1/2,-y,z+1/2
 -x,y+1/2,-z
 x+1/2,-y+1/2,-z+1/2
 -x,-y,-z
 x+1/2,y,-z+1/2
 x,-y+1/2,z
 -x+1/2,y+1/2,z+1/2
_cell_length_a 10.2031
_cell_length_b 11.5005
_cell_length_c 7.0474
_cell_angle_alpha 90.0000
_cell_angle_beta 90.0000
_cell_angle_gamma 90.0000
loop_
_atom_site_label
_atom_site_type_symbol
_atom_site_fract_x
_atom_site_fract_y
_atom_site_fract_z
_atom_site_U_iso_or_equiv
_atom_site_adp_type
_atom_site_occupancy
Li5 Li -0.46908 0.36846 0.04097 0.00000 Uiso 1.00
Li13 Li -0.21298 0.38013 0.90632 0.00000 Uiso 1.00
H29 H -0.46644 0.83805 0.48674 0.00000 Uiso 1.00
B41 B -0.32900 0.54171 0.09149 0.00000 Uiso 1.00
H49 H -0.34564 0.64560 0.12347 0.00000 Uiso 1.00
H57 H -0.21153 0.52165 0.08404 0.00000 Uiso 1.00
H65 H -0.37885 0.51891 0.93770 0.00000 Uiso 1.00
H73 H -0.37998 0.48444 0.21860 0.00000 Uiso 1.00
Li1 Li -0.37639 0.25000 0.68062 0.00000 Uiso 1.00
N81 N -0.34453 0.25000 0.93946 0.00000 Uiso 1.00
H85 H -0.30733 0.25000 0.07632 0.00000 Uiso 1.00
B21 B -0.49314 0.75000 0.57857 0.00000 Uiso 1.00
H25 H 0.38782 0.75000 0.60278 0.00000 Uiso 1.00 
S3
H37 H -0.43498 0.75000 0.73059 0.00000 Uiso 1.00
loop_
_geom_bond_atom_site_label_1
_geom_bond_atom_site_label_2
_geom_bond_distance
_geom_bond_site_symmetry_2
_ccdc_geom_bond_type
H29 B21 1.232 . S
B41 H49 1.228 . S
B41 H57 1.222 . S
B41 H65 1.226 1_554 S
B41 H73 1.227 . S
H65 B41 1.226 1_556 S
N81 H85 1.037 1_556 S
H85 N81 1.037 1_554 S
B21 H25 1.226 1_455 S
B21 H29 1.232 7_565 S
B21 H37 1.225 . S
H25 B21 1.226 1_655 S