# CIF file generated by openbabel 2.4.1, see http://openbabel.sf.net
data_I
_chemical_name_common '?'
_cell_length_a 13.812
_cell_length_b 7.9624
_cell_length_c 6.37
_cell_angle_alpha 90
_cell_angle_beta 90
_cell_angle_gamma 90
_space_group_name_H-M_alt 'P 1'
_space_group_name_Hall 'P 1'
loop_
    _symmetry_equiv_pos_as_xyz
    x,y,z
loop_
    _atom_site_label
    _atom_site_type_symbol
    _atom_site_fract_x
    _atom_site_fract_y
    _atom_site_fract_z
    _atom_site_occupancy
    Sn1     Sn   0.41339   0.25000   0.63477   1.000
    S1      S    0.40860   0.25000   0.26260   1.000
    Li1     Li   0.33960   0.49550   0.15400   1.000
    Li2     Li   0.56960   0.25000   0.16200   1.000
    S2      S    0.57562   0.25000   0.76410   1.000
    S3      S    0.33254   0.49341   0.76654   1.000
    Li4     Li   0.46500   0.51700   0.99100   0.250
    Li3     Li   0.28700   0.70600   0.49900   0.250
    S1      S    0.09140   0.75000   0.76260   1.000
    S1      S    0.59140   0.75000   0.73740   1.000
    S1      S    0.90860   0.25000   0.23740   1.000
    Sn1     Sn   0.08661   0.75000   0.13477   1.000
    Sn1     Sn   0.58661   0.75000   0.36523   1.000
    Sn1     Sn   0.91339   0.25000   0.86523   1.000
    Li1     Li   0.16040   0.50450   0.65400   1.000
    Li1     Li   0.66040   0.99550   0.84600   1.000
    Li1     Li   0.83960   0.00450   0.34600   1.000
    Li1     Li   0.66040   0.50450   0.84600   1.000
    Li1     Li   0.83960   0.49550   0.34600   1.000
    Li1     Li   0.33960   0.00450   0.15400   1.000
    Li1     Li   0.16040   0.99550   0.65400   1.000
    Li2     Li   0.93040   0.75000   0.66200   1.000
    Li2     Li   0.43040   0.75000   0.83800   1.000
    Li2     Li   0.06960   0.25000   0.33800   1.000
    S2      S    0.92438   0.75000   0.26410   1.000
    S2      S    0.42438   0.75000   0.23590   1.000
    S2      S    0.07562   0.25000   0.73590   1.000
    S3      S    0.16746   0.50659   0.26654   1.000
    S3      S    0.66746   0.99341   0.23346   1.000
    S3      S    0.83254   0.00659   0.73346   1.000
    S3      S    0.66746   0.50659   0.23346   1.000
    S3      S    0.83254   0.49341   0.73346   1.000
    S3      S    0.33254   0.00659   0.76654   1.000
    S3      S    0.16746   0.99341   0.26654   1.000
    Li4     Li   0.03500   0.48300   0.49100   0.250
    Li4     Li   0.53500   0.01700   0.00900   0.250
    Li4     Li   0.96500   0.98300   0.50900   0.250
    Li4     Li   0.53500   0.48300   0.00900   0.250
    Li4     Li   0.96500   0.51700   0.50900   0.250
    Li4     Li   0.46500   0.98300   0.99100   0.250
    Li4     Li   0.03500   0.01700   0.49100   0.250
    Li3     Li   0.21300   0.29400   0.99900   0.250
    Li3     Li   0.71300   0.20600   0.50100   0.250
    Li3     Li   0.78700   0.79400   0.00100   0.250
    Li3     Li   0.71300   0.29400   0.50100   0.250
    Li3     Li   0.78700   0.70600   0.00100   0.250
    Li3     Li   0.28700   0.79400   0.49900   0.250
    Li3     Li   0.21300   0.20600   0.99900   0.250
