data_Na3BH4B12H12
_chemical_name_mineral ?Na3(BH4)(B12H12)?
_cell_length_a 8.0083(4)
_cell_length_b 21.881(1)
_cell_length_c 7.7672(4)
_cell_angle_alpha 90
_cell_angle_beta 90
_cell_angle_gamma 90
_cell_volume 1361.05(12)
_cell_measurement_temperature 523
_symmetry_space_group_name_H-M Cmc21
loop_
_atom_site_label
_atom_site_type_symbol
_atom_site_symmetry_multiplicity
_atom_site_fract_x
_atom_site_fract_y
_atom_site_fract_z
_atom_site_occupancy
_atom_site_B_iso_or_equiv
Na1 Na 0 0.5 0.066(3) 0.879(12) 0.300(10) 13.3(10)
Na2 Na 0 0.5 0.066(3) 0.585(12) 0.300(10) 13.3(10)
Na3 Na 0 0.262(15) 0.478(4) 0.092(8) 0.300(10) 13.3(10)
Na4 Na 0 0.5 0.160(3) 0.555(11) 0.300(10) 13.3(10)
Na5 Na 0 0.5 0.160(4) 0.133(11) 0.300(10) 13.3(10)
Na6 Na 0 0.246(8) 0.352(2) 0.948(6) 0.300(10) 13.3(10)
Na7 Na 0 0.767(14) 0.027(4) 0.498(7) 0.300(10) 13.3(10)
B1 B 0 0 0.7648(6) 0.319(3) 1 10.0(10)
H2 H 0 0 0.7119(6) 0.330(5) 1 10.0(10)
B3 B 0 -0.18283 0.8098(7) 0.3702(14) 1 10.0(10)
H4 H 0 -0.3060714 0.7874(8) 0.417(2) 1 10.0(10)
B5 B 0 -0.1128247 0.8828(10) 0.4535(16) 1 10.0(10)
H6 H 0 -0.1890196 0.9094(14) 0.556(3) 1 10.0(10)
B7 B 0 0 0.9217(6) 0.284(3) 1 10.0(10)
H8 H 0 0 0.9745(6) 0.272(5) 1 10.0(10)
B9 B 0 0.113119 0.8037(10) 0.1492(16) 1 10.0(10)
H10 H 0 0.1892378 0.7770(14) 0.047(3) 1 10.0(10)
B11 B 0 0.1828732 0.8766(7) 0.2325(14) 1 10.0(10)
H12 H 0 0.3061741 0.8991(8) 0.186(2) 1 10.0(10)
H13 H 0 0 0.7937(18) 0.645(2) 1 10.0(10)
B14 B 0 0 0.8728(12) 0.0958(12) 1 10.0(10)
B15 B 0 0 0.8136(12) 0.5068(12) 1 10.0(10)
H16 H 0 0 0.8927(18) -0.043(2) 1 10.0(10)
B B 0 0 0.567(3) 0.236(10) 1 10(4)
Hb1 H 0 -0.118(15) 0.575(9) 0.154(16) 1 10(4)
Hb2 H 0 0 0.516(8) 0.28(4) 1 10(4)
Hb3 H 0 0 0.600(13) 0.35(3) 1 10(4)