# CIF file generated by openbabel 2.4.1, see http://openbabel.sf.net
data_I
_chemical_name_common '?Cs2LiY(BH4)6?'
_cell_length_a 11.2522
_cell_length_b 11.2522
_cell_length_c 11.2522
_cell_angle_alpha 90
_cell_angle_beta 90
_cell_angle_gamma 90
_space_group_name_H-M_alt 'P 1'
_space_group_name_Hall 'P 1'
loop_
    _symmetry_equiv_pos_as_xyz
    x,y,z
loop_
    _atom_site_label
    _atom_site_type_symbol
    _atom_site_fract_x
    _atom_site_fract_y
    _atom_site_fract_z
    _atom_site_occupancy
    Cs1     Cs   0.25000   0.25000   0.25000   1.000
    Y1a     Y    0.00000   0.00000   0.00000   1.000
    Li2a    Li   0.50000   0.50000   0.50000   1.000
    B1      B    0.50000   0.00000   0.25080   1.000
    H11     H    0.58240   0.00000   0.30910   0.500
    H13     H    0.50000   0.91760   0.19250   0.500
    Cs1     Cs   0.75000   0.75000   0.25000   1.000
    Cs1     Cs   0.75000   0.25000   0.75000   1.000
    Cs1     Cs   0.25000   0.75000   0.75000   1.000
    Cs1     Cs   0.75000   0.75000   0.75000   1.000
    Cs1     Cs   0.25000   0.25000   0.75000   1.000
    Cs1     Cs   0.25000   0.75000   0.25000   1.000
    Cs1     Cs   0.75000   0.25000   0.25000   1.000
    Y1a     Y    0.00000   0.50000   0.50000   1.000
    Y1a     Y    0.50000   0.00000   0.50000   1.000
    Y1a     Y    0.50000   0.50000   0.00000   1.000
    Li2a    Li   0.50000   0.00000   0.00000   1.000
    Li2a    Li   0.00000   0.50000   0.00000   1.000
    Li2a    Li   0.00000   0.00000   0.50000   1.000
    B1      B    0.50000   0.00000   0.74920   1.000
    B1      B    0.25080   0.50000   0.00000   1.000
    B1      B    0.74920   0.50000   0.00000   1.000
    B1      B    0.00000   0.25080   0.50000   1.000
    B1      B    0.00000   0.74920   0.50000   1.000
    B1      B    0.50000   0.50000   0.75080   1.000
    B1      B    0.50000   0.50000   0.24920   1.000
    B1      B    0.25080   0.00000   0.50000   1.000
    B1      B    0.74920   0.00000   0.50000   1.000
    B1      B    0.00000   0.75080   0.00000   1.000
    B1      B    0.00000   0.24920   0.00000   1.000
    B1      B    0.00000   0.00000   0.75080   1.000
    B1      B    0.00000   0.00000   0.24920   1.000
    B1      B    0.75080   0.50000   0.50000   1.000
    B1      B    0.24920   0.50000   0.50000   1.000
    B1      B    0.50000   0.25080   0.00000   1.000
    B1      B    0.50000   0.74920   0.00000   1.000
    B1      B    0.00000   0.50000   0.25080   1.000
    B1      B    0.00000   0.50000   0.74920   1.000
    B1      B    0.75080   0.00000   0.00000   1.000
    B1      B    0.24920   0.00000   0.00000   1.000
    B1      B    0.50000   0.75080   0.50000   1.000
    B1      B    0.50000   0.24920   0.50000   1.000
    H11     H    0.41760   0.00000   0.30910   0.500
    H11     H    0.41760   0.00000   0.69090   0.500
    H11     H    0.58240   0.00000   0.69090   0.500
    H11     H    0.30910   0.58240   0.00000   0.500
    H11     H    0.30910   0.41760   0.00000   0.500
    H11     H    0.69090   0.41760   0.00000   0.500
    H11     H    0.69090   0.58240   0.00000   0.500
    H11     H    0.00000   0.30910   0.58240   0.500
    H11     H    0.00000   0.30910   0.41760   0.500
    H11     H    0.00000   0.69090   0.41760   0.500
    H11     H    0.00000   0.69090   0.58240   0.500
    H11     H    0.58240   0.50000   0.80910   0.500
    H11     H    0.41760   0.50000   0.80910   0.500
    H11     H    0.41760   0.50000   0.19090   0.500
    H11     H    0.58240   0.50000   0.19090   0.500
    H11     H    0.30910   0.08240   0.50000   0.500
    H11     H    0.30910   0.91760   0.50000   0.500
    H11     H    0.69090   0.91760   0.50000   0.500
    H11     H    0.69090   0.08240   0.50000   0.500
    H11     H    0.00000   0.80910   0.08240   0.500
    H11     H    0.00000   0.80910   0.91760   0.500
    H11     H    0.00000   0.19090   0.91760   0.500
    H11     H    0.00000   0.19090   0.08240   0.500
    H11     H    0.08240   0.00000   0.80910   0.500
    H11     H    0.91760   0.00000   0.80910   0.500
    H11     H    0.91760   0.00000   0.19090   0.500
    H11     H    0.08240   0.00000   0.19090   0.500
    H11     H    0.80910   0.58240   0.50000   0.500
    H11     H    0.80910   0.41760   0.50000   0.500
    H11     H    0.19090   0.41760   0.50000   0.500
    H11     H    0.19090   0.58240   0.50000   0.500
    H11     H    0.50000   0.30910   0.08240   0.500
    H11     H    0.50000   0.30910   0.91760   0.500
    H11     H    0.50000   0.69090   0.91760   0.500
    H11     H    0.50000   0.69090   0.08240   0.500
    H11     H    0.08240   0.50000   0.30910   0.500
    H11     H    0.91760   0.50000   0.30910   0.500
    H11     H    0.91760   0.50000   0.69090   0.500
    H11     H    0.08240   0.50000   0.69090   0.500
    H11     H    0.80910   0.08240   0.00000   0.500
    H11     H    0.80910   0.91760   0.00000   0.500
    H11     H    0.19090   0.91760   0.00000   0.500
    H11     H    0.19090   0.08240   0.00000   0.500
    H11     H    0.50000   0.80910   0.58240   0.500
    H11     H    0.50000   0.80910   0.41760   0.500
    H11     H    0.50000   0.19090   0.41760   0.500
    H11     H    0.50000   0.19090   0.58240   0.500
    H13     H    0.50000   0.08240   0.19250   0.500
    H13     H    0.50000   0.91760   0.80750   0.500
    H13     H    0.50000   0.08240   0.80750   0.500
    H13     H    0.19250   0.50000   0.91760   0.500
    H13     H    0.19250   0.50000   0.08240   0.500
    H13     H    0.80750   0.50000   0.91760   0.500
    H13     H    0.80750   0.50000   0.08240   0.500
    H13     H    0.91760   0.19250   0.50000   0.500
    H13     H    0.08240   0.19250   0.50000   0.500
    H13     H    0.91760   0.80750   0.50000   0.500
    H13     H    0.08240   0.80750   0.50000   0.500
    H13     H    0.50000   0.41760   0.69250   0.500
    H13     H    0.50000   0.58240   0.69250   0.500
    H13     H    0.50000   0.41760   0.30750   0.500
    H13     H    0.50000   0.58240   0.30750   0.500
    H13     H    0.19250   0.00000   0.41760   0.500
    H13     H    0.19250   0.00000   0.58240   0.500
    H13     H    0.80750   0.00000   0.41760   0.500
    H13     H    0.80750   0.00000   0.58240   0.500
    H13     H    0.91760   0.69250   0.00000   0.500
    H13     H    0.08240   0.69250   0.00000   0.500
    H13     H    0.91760   0.30750   0.00000   0.500
    H13     H    0.08240   0.30750   0.00000   0.500
    H13     H    0.00000   0.91760   0.69250   0.500
    H13     H    0.00000   0.08240   0.69250   0.500
    H13     H    0.00000   0.91760   0.30750   0.500
    H13     H    0.00000   0.08240   0.30750   0.500
    H13     H    0.69250   0.50000   0.41760   0.500
    H13     H    0.69250   0.50000   0.58240   0.500
    H13     H    0.30750   0.50000   0.41760   0.500
    H13     H    0.30750   0.50000   0.58240   0.500
    H13     H    0.41760   0.19250   0.00000   0.500
    H13     H    0.58240   0.19250   0.00000   0.500
    H13     H    0.41760   0.80750   0.00000   0.500
    H13     H    0.58240   0.80750   0.00000   0.500
    H13     H    0.00000   0.41760   0.19250   0.500
    H13     H    0.00000   0.58240   0.19250   0.500
    H13     H    0.00000   0.41760   0.80750   0.500
    H13     H    0.00000   0.58240   0.80750   0.500
    H13     H    0.69250   0.00000   0.91760   0.500
    H13     H    0.69250   0.00000   0.08240   0.500
    H13     H    0.30750   0.00000   0.91760   0.500
    H13     H    0.30750   0.00000   0.08240   0.500
    H13     H    0.41760   0.69250   0.50000   0.500
    H13     H    0.58240   0.69250   0.50000   0.500
    H13     H    0.41760   0.30750   0.50000   0.500
    H13     H    0.58240   0.30750   0.50000   0.500
