# CIF file generated by openbabel 2.4.1, see http://openbabel.sf.net
data_I
_chemical_name_common 'Li5_Topas_ecut60_optd_XX'
_cell_length_a 10.2031
_cell_length_b 11.5005
_cell_length_c 7.0474
_cell_angle_alpha 90
_cell_angle_beta 90
_cell_angle_gamma 90
_space_group_name_H-M_alt 'P 1'
_space_group_name_Hall 'P 1'
loop_
    _symmetry_equiv_pos_as_xyz
    x,y,z
loop_
    _atom_site_label
    _atom_site_type_symbol
    _atom_site_fract_x
    _atom_site_fract_y
    _atom_site_fract_z
    _atom_site_occupancy
    Li5     Li   0.53092   0.36846   0.04097   1.000
    Li13    Li   0.78702   0.38013   0.90632   1.000
    H29     H    0.53356   0.83805   0.48674   1.000
    B41     B    0.67100   0.54171   0.09149   1.000
    H49     H    0.65436   0.64560   0.12347   1.000
    H57     H    0.78847   0.52165   0.08404   1.000
    H65     H    0.62115   0.51891   0.93770   1.000
    H73     H    0.62002   0.48444   0.21860   1.000
    Li1     Li   0.62361   0.25000   0.68062   1.000
    N81     N    0.65547   0.25000   0.93946   1.000
    H85     H    0.69267   0.25000   0.07632   1.000
    B21     B    0.50686   0.75000   0.57857   1.000
    H25     H    0.38782   0.75000   0.60278   1.000
    S3      H    0.00000   0.56502   0.75000   0.000
    1.00    Xx   0.00000   0.00000   0.00000   1.000
    Li5     Li   0.96908   0.63154   0.54097   1.000
    Li5     Li   0.46908   0.86846   0.95903   1.000
    Li5     Li   0.03092   0.13154   0.45903   1.000
    Li5     Li   0.46908   0.63154   0.95903   1.000
    Li5     Li   0.03092   0.36846   0.45903   1.000
    Li5     Li   0.53092   0.13154   0.04097   1.000
    Li5     Li   0.96908   0.86846   0.54097   1.000
    Li13    Li   0.71298   0.61987   0.40632   1.000
    Li13    Li   0.21298   0.88013   0.09368   1.000
    Li13    Li   0.28702   0.11987   0.59368   1.000
    Li13    Li   0.21298   0.61987   0.09368   1.000
    Li13    Li   0.28702   0.38013   0.59368   1.000
    Li13    Li   0.78702   0.11987   0.90632   1.000
    Li13    Li   0.71298   0.88013   0.40632   1.000
    H29     H    0.96644   0.16195   0.98674   1.000
    H29     H    0.46644   0.33805   0.51326   1.000
    H29     H    0.03356   0.66195   0.01326   1.000
    H29     H    0.46644   0.16195   0.51326   1.000
    H29     H    0.03356   0.83805   0.01326   1.000
    H29     H    0.53356   0.66195   0.48674   1.000
    H29     H    0.96644   0.33805   0.98674   1.000
    B41     B    0.82900   0.45829   0.59149   1.000
    B41     B    0.32900   0.04171   0.90851   1.000
    B41     B    0.17100   0.95829   0.40851   1.000
    B41     B    0.32900   0.45829   0.90851   1.000
    B41     B    0.17100   0.54171   0.40851   1.000
    B41     B    0.67100   0.95829   0.09149   1.000
    B41     B    0.82900   0.04171   0.59149   1.000
    H49     H    0.84564   0.35440   0.62347   1.000
    H49     H    0.34564   0.14560   0.87653   1.000
    H49     H    0.15436   0.85440   0.37653   1.000
    H49     H    0.34564   0.35440   0.87653   1.000
    H49     H    0.15436   0.64560   0.37653   1.000
    H49     H    0.65436   0.85440   0.12347   1.000
    H49     H    0.84564   0.14560   0.62347   1.000
    H57     H    0.71153   0.47835   0.58404   1.000
    H57     H    0.21153   0.02165   0.91596   1.000
    H57     H    0.28847   0.97835   0.41596   1.000
    H57     H    0.21153   0.47835   0.91596   1.000
    H57     H    0.28847   0.52165   0.41596   1.000
    H57     H    0.78847   0.97835   0.08404   1.000
    H57     H    0.71153   0.02165   0.58404   1.000
    H65     H    0.87885   0.48109   0.43770   1.000
    H65     H    0.37885   0.01891   0.06230   1.000
    H65     H    0.12115   0.98109   0.56230   1.000
    H65     H    0.37885   0.48109   0.06230   1.000
    H65     H    0.12115   0.51891   0.56230   1.000
    H65     H    0.62115   0.98109   0.93770   1.000
    H65     H    0.87885   0.01891   0.43770   1.000
    H73     H    0.87998   0.51556   0.71860   1.000
    H73     H    0.37998   0.98444   0.78140   1.000
    H73     H    0.12002   0.01556   0.28140   1.000
    H73     H    0.37998   0.51556   0.78140   1.000
    H73     H    0.12002   0.48444   0.28140   1.000
    H73     H    0.62002   0.01556   0.21860   1.000
    H73     H    0.87998   0.98444   0.71860   1.000
    Li1     Li   0.87639   0.75000   0.18062   1.000
    Li1     Li   0.37639   0.75000   0.31938   1.000
    Li1     Li   0.12361   0.25000   0.81938   1.000
    N81     N    0.84453   0.75000   0.43946   1.000
    N81     N    0.34453   0.75000   0.06054   1.000
    N81     N    0.15547   0.25000   0.56054   1.000
    H85     H    0.80733   0.75000   0.57632   1.000
    H85     H    0.30733   0.75000   0.92368   1.000
    H85     H    0.19267   0.25000   0.42368   1.000
    B21     B    0.99314   0.25000   0.07857   1.000
    B21     B    0.49314   0.25000   0.42143   1.000
    B21     B    0.00686   0.75000   0.92143   1.000
    H25     H    0.11218   0.25000   0.10278   1.000
    H25     H    0.61218   0.25000   0.39722   1.000
    H25     H    0.88782   0.75000   0.89722   1.000
    S3      H    0.50000   0.43498   0.25000   0.000
    S3      H    0.00000   0.06502   0.25000   0.000
    S3      H    0.50000   0.93498   0.75000   0.000
    S3      H    0.00000   0.43498   0.25000   0.000
    S3      H    0.50000   0.56502   0.75000   0.000
    S3      H    0.00000   0.93498   0.75000   0.000
    S3      H    0.50000   0.06502   0.25000   0.000
    1.00    Xx   0.50000   0.00000   0.50000   1.000
    1.00    Xx   0.00000   0.50000   0.00000   1.000
    1.00    Xx   0.50000   0.50000   0.50000   1.000
