# CIF file generated by openbabel 2.4.1, see http://openbabel.sf.net
data_I
_chemical_name_common '?'
_cell_length_a 9.6668
_cell_length_b 9.4892
_cell_length_c 9.7273
_cell_angle_alpha 90
_cell_angle_beta 90
_cell_angle_gamma 90
_space_group_name_H-M_alt 'P 1'
_space_group_name_Hall 'P 1'
loop_
    _symmetry_equiv_pos_as_xyz
    x,y,z
loop_
    _atom_site_label
    _atom_site_type_symbol
    _atom_site_fract_x
    _atom_site_fract_y
    _atom_site_fract_z
    _atom_site_occupancy
    C1      C    0.57536   0.35916   0.38806   1.000
    B2      B    0.53180   0.20948   0.30260   1.000
    B3      B    0.65913   0.20938   0.43508   1.000
    B4      B    0.61094   0.33813   0.55880   1.000
    B5      B    0.45479   0.41699   0.50234   1.000
    B6      B    0.37190   0.15725   0.37596   1.000
    B7      B    0.40570   0.33803   0.34427   1.000
    B8      B    0.52921   0.07838   0.43089   1.000
    B9      B    0.57830   0.15703   0.58968   1.000
    B10     B    0.45179   0.28643   0.63279   1.000
    B11     B    0.32560   0.28600   0.50000   1.000
    B12     B    0.40170   0.12548   0.55326   1.000
    H13     H    0.63455   0.43810   0.33204   1.000
    H14     H    0.56724   0.19308   0.18549   1.000
    H15     H    0.77717   0.19359   0.40529   1.000
    H16     H    0.69850   0.40849   0.61058   1.000
    H17     H    0.43670   0.53969   0.51725   1.000
    H18     H    0.28736   0.09226   0.31085   1.000
    H19     H    0.35596   0.40893   0.25631   1.000
    H20     H    0.55649   0.95736   0.40750   1.000
    H21     H    0.64137   0.09159   0.67545   1.000
    H22     H    0.42282   0.31472   0.74880   1.000
    H23     H    0.20787   0.31664   0.52497   1.000
    H24     H    0.33372   0.03823   0.61201   1.000
    Li25    Li   0.10400   0.11600   0.59900   1.000
    C1      C    0.42464   0.64084   0.88806   1.000
    C1      C    0.07536   0.64084   0.38806   1.000
    C1      C    0.92464   0.35916   0.88806   1.000
    B2      B    0.46820   0.79052   0.80260   1.000
    B2      B    0.03180   0.79052   0.30260   1.000
    B2      B    0.96820   0.20948   0.80260   1.000
    B3      B    0.34087   0.79062   0.93508   1.000
    B3      B    0.15913   0.79062   0.43508   1.000
    B3      B    0.84087   0.20938   0.93508   1.000
    B4      B    0.38906   0.66187   0.05880   1.000
    B4      B    0.11094   0.66187   0.55880   1.000
    B4      B    0.88906   0.33813   0.05880   1.000
    B5      B    0.54521   0.58301   0.00234   1.000
    B5      B    0.95479   0.58301   0.50234   1.000
    B5      B    0.04521   0.41699   0.00234   1.000
    B6      B    0.62810   0.84275   0.87596   1.000
    B6      B    0.87190   0.84275   0.37596   1.000
    B6      B    0.12810   0.15725   0.87596   1.000
    B7      B    0.59430   0.66197   0.84427   1.000
    B7      B    0.90570   0.66197   0.34427   1.000
    B7      B    0.09430   0.33803   0.84427   1.000
    B8      B    0.47079   0.92162   0.93089   1.000
    B8      B    0.02921   0.92162   0.43089   1.000
    B8      B    0.97079   0.07838   0.93089   1.000
    B9      B    0.42170   0.84297   0.08968   1.000
    B9      B    0.07830   0.84297   0.58968   1.000
    B9      B    0.92170   0.15703   0.08968   1.000
    B10     B    0.54821   0.71357   0.13279   1.000
    B10     B    0.95179   0.71357   0.63279   1.000
    B10     B    0.04821   0.28643   0.13279   1.000
    B11     B    0.67440   0.71400   0.00000   1.000
    B11     B    0.82560   0.71400   0.50000   1.000
    B11     B    0.17440   0.28600   0.00000   1.000
    B12     B    0.59830   0.87452   0.05326   1.000
    B12     B    0.90170   0.87452   0.55326   1.000
    B12     B    0.09830   0.12548   0.05326   1.000
    H13     H    0.36545   0.56190   0.83204   1.000
    H13     H    0.13455   0.56190   0.33204   1.000
    H13     H    0.86545   0.43810   0.83204   1.000
    H14     H    0.43276   0.80692   0.68549   1.000
    H14     H    0.06724   0.80692   0.18549   1.000
    H14     H    0.93276   0.19308   0.68549   1.000
    H15     H    0.22283   0.80641   0.90529   1.000
    H15     H    0.27717   0.80641   0.40529   1.000
    H15     H    0.72283   0.19359   0.90529   1.000
    H16     H    0.30150   0.59151   0.11058   1.000
    H16     H    0.19850   0.59151   0.61058   1.000
    H16     H    0.80150   0.40849   0.11058   1.000
    H17     H    0.56330   0.46031   0.01725   1.000
    H17     H    0.93670   0.46031   0.51725   1.000
    H17     H    0.06330   0.53969   0.01725   1.000
    H18     H    0.71264   0.90774   0.81085   1.000
    H18     H    0.78736   0.90774   0.31085   1.000
    H18     H    0.21264   0.09226   0.81085   1.000
    H19     H    0.64404   0.59107   0.75631   1.000
    H19     H    0.85596   0.59107   0.25631   1.000
    H19     H    0.14404   0.40893   0.75631   1.000
    H20     H    0.44351   0.04264   0.90750   1.000
    H20     H    0.05649   0.04264   0.40750   1.000
    H20     H    0.94351   0.95736   0.90750   1.000
    H21     H    0.35863   0.90841   0.17545   1.000
    H21     H    0.14137   0.90841   0.67545   1.000
    H21     H    0.85863   0.09159   0.17545   1.000
    H22     H    0.57718   0.68528   0.24880   1.000
    H22     H    0.92282   0.68528   0.74880   1.000
    H22     H    0.07718   0.31472   0.24880   1.000
    H23     H    0.79213   0.68336   0.02497   1.000
    H23     H    0.70787   0.68336   0.52497   1.000
    H23     H    0.29213   0.31664   0.02497   1.000
    H24     H    0.66628   0.96177   0.11201   1.000
    H24     H    0.83372   0.96177   0.61201   1.000
    H24     H    0.16628   0.03823   0.11201   1.000
    Li25    Li   0.89600   0.88400   0.09900   1.000
    Li25    Li   0.60400   0.88400   0.59900   1.000
    Li25    Li   0.39600   0.11600   0.09900   1.000
