# CIF file generated by openbabel 2.4.1, see http://openbabel.sf.net
data_I
_chemical_name_common '?'
_cell_length_a 11.7869
_cell_length_b 11.7869
_cell_length_c 11.7869
_cell_angle_alpha 90
_cell_angle_beta 90
_cell_angle_gamma 90
_space_group_name_H-M_alt 'P 1'
_space_group_name_Hall 'P 1'
loop_
    _symmetry_equiv_pos_as_xyz
    x,y,z
loop_
    _atom_site_label
    _atom_site_type_symbol
    _atom_site_fract_x
    _atom_site_fract_y
    _atom_site_fract_z
    _atom_site_occupancy
    La11    La   0.64130   0.64130   0.64130   1.000
    B12     B    0.12160   0.12160   0.37350   1.000
    Br13    Br   0.89340   0.89340   0.89340   1.000
    Li34    Li   0.25000   0.50000   0.00000   0.667
    H15     H    0.14630   0.02580   0.32990   1.000
    H16     H    0.11180   0.11180   0.47770   1.000
    H17     H    0.18890   0.18890   0.34790   1.000
    B12     B    0.87840   0.87840   0.37350   1.000
    B12     B    0.87840   0.12160   0.62650   1.000
    B12     B    0.12160   0.87840   0.62650   1.000
    B12     B    0.37350   0.12160   0.12160   1.000
    B12     B    0.37350   0.87840   0.87840   1.000
    B12     B    0.62650   0.87840   0.12160   1.000
    B12     B    0.62650   0.12160   0.87840   1.000
    B12     B    0.12160   0.37350   0.12160   1.000
    B12     B    0.87840   0.37350   0.87840   1.000
    B12     B    0.12160   0.62650   0.87840   1.000
    B12     B    0.87840   0.62650   0.12160   1.000
    B12     B    0.62160   0.62160   0.87350   1.000
    B12     B    0.37840   0.37840   0.87350   1.000
    B12     B    0.37840   0.62160   0.12650   1.000
    B12     B    0.62160   0.37840   0.12650   1.000
    B12     B    0.87350   0.62160   0.62160   1.000
    B12     B    0.87350   0.37840   0.37840   1.000
    B12     B    0.12650   0.37840   0.62160   1.000
    B12     B    0.12650   0.62160   0.37840   1.000
    B12     B    0.62160   0.87350   0.62160   1.000
    B12     B    0.37840   0.87350   0.37840   1.000
    B12     B    0.62160   0.12650   0.37840   1.000
    B12     B    0.37840   0.12650   0.62160   1.000
    Br13    Br   0.10660   0.10660   0.89340   1.000
    Br13    Br   0.10660   0.89340   0.10660   1.000
    Br13    Br   0.89340   0.10660   0.10660   1.000
    Br13    Br   0.39340   0.39340   0.39340   1.000
    Br13    Br   0.60660   0.60660   0.39340   1.000
    Br13    Br   0.60660   0.39340   0.60660   1.000
    Br13    Br   0.39340   0.60660   0.60660   1.000
    Li34    Li   0.75000   0.50000   0.00000   0.667
    Li34    Li   0.00000   0.25000   0.50000   0.667
    Li34    Li   0.00000   0.75000   0.50000   0.667
    Li34    Li   0.50000   0.00000   0.25000   0.667
    Li34    Li   0.50000   0.00000   0.75000   0.667
    Li34    Li   0.50000   0.25000   0.00000   0.667
    Li34    Li   0.50000   0.75000   0.00000   0.667
    Li34    Li   0.25000   0.00000   0.50000   0.667
    Li34    Li   0.75000   0.00000   0.50000   0.667
    Li34    Li   0.00000   0.50000   0.25000   0.667
    Li34    Li   0.00000   0.50000   0.75000   0.667
    H15     H    0.85370   0.97420   0.32990   1.000
    H15     H    0.85370   0.02580   0.67010   1.000
    H15     H    0.14630   0.97420   0.67010   1.000
    H15     H    0.32990   0.14630   0.02580   1.000
    H15     H    0.32990   0.85370   0.97420   1.000
    H15     H    0.67010   0.85370   0.02580   1.000
    H15     H    0.67010   0.14630   0.97420   1.000
    H15     H    0.02580   0.32990   0.14630   1.000
    H15     H    0.97420   0.32990   0.85370   1.000
    H15     H    0.02580   0.67010   0.85370   1.000
    H15     H    0.97420   0.67010   0.14630   1.000
    H15     H    0.02580   0.14630   0.32990   1.000
    H15     H    0.97420   0.85370   0.32990   1.000
    H15     H    0.02580   0.85370   0.67010   1.000
    H15     H    0.97420   0.14630   0.67010   1.000
    H15     H    0.14630   0.32990   0.02580   1.000
    H15     H    0.85370   0.32990   0.97420   1.000
    H15     H    0.85370   0.67010   0.02580   1.000
    H15     H    0.14630   0.67010   0.97420   1.000
    H15     H    0.32990   0.02580   0.14630   1.000
    H15     H    0.32990   0.97420   0.85370   1.000
    H15     H    0.67010   0.02580   0.85370   1.000
    H15     H    0.67010   0.97420   0.14630   1.000
    H15     H    0.64630   0.52580   0.82990   1.000
    H15     H    0.35370   0.47420   0.82990   1.000
    H15     H    0.35370   0.52580   0.17010   1.000
    H15     H    0.64630   0.47420   0.17010   1.000
    H15     H    0.82990   0.64630   0.52580   1.000
    H15     H    0.82990   0.35370   0.47420   1.000
    H15     H    0.17010   0.35370   0.52580   1.000
    H15     H    0.17010   0.64630   0.47420   1.000
    H15     H    0.52580   0.82990   0.64630   1.000
    H15     H    0.47420   0.82990   0.35370   1.000
    H15     H    0.52580   0.17010   0.35370   1.000
    H15     H    0.47420   0.17010   0.64630   1.000
    H15     H    0.52580   0.64630   0.82990   1.000
    H15     H    0.47420   0.35370   0.82990   1.000
    H15     H    0.52580   0.35370   0.17010   1.000
    H15     H    0.47420   0.64630   0.17010   1.000
    H15     H    0.64630   0.82990   0.52580   1.000
    H15     H    0.35370   0.82990   0.47420   1.000
    H15     H    0.35370   0.17010   0.52580   1.000
    H15     H    0.64630   0.17010   0.47420   1.000
    H15     H    0.82990   0.52580   0.64630   1.000
    H15     H    0.82990   0.47420   0.35370   1.000
    H15     H    0.17010   0.52580   0.35370   1.000
    H15     H    0.17010   0.47420   0.64630   1.000
    H16     H    0.88820   0.88820   0.47770   1.000
    H16     H    0.88820   0.11180   0.52230   1.000
    H16     H    0.11180   0.88820   0.52230   1.000
    H16     H    0.47770   0.11180   0.11180   1.000
    H16     H    0.47770   0.88820   0.88820   1.000
    H16     H    0.52230   0.88820   0.11180   1.000
    H16     H    0.52230   0.11180   0.88820   1.000
    H16     H    0.11180   0.47770   0.11180   1.000
    H16     H    0.88820   0.47770   0.88820   1.000
    H16     H    0.11180   0.52230   0.88820   1.000
    H16     H    0.88820   0.52230   0.11180   1.000
    H16     H    0.61180   0.61180   0.97770   1.000
    H16     H    0.38820   0.38820   0.97770   1.000
    H16     H    0.38820   0.61180   0.02230   1.000
    H16     H    0.61180   0.38820   0.02230   1.000
    H16     H    0.97770   0.61180   0.61180   1.000
    H16     H    0.97770   0.38820   0.38820   1.000
    H16     H    0.02230   0.38820   0.61180   1.000
    H16     H    0.02230   0.61180   0.38820   1.000
    H16     H    0.61180   0.97770   0.61180   1.000
    H16     H    0.38820   0.97770   0.38820   1.000
    H16     H    0.61180   0.02230   0.38820   1.000
    H16     H    0.38820   0.02230   0.61180   1.000
    H17     H    0.81110   0.81110   0.34790   1.000
    H17     H    0.81110   0.18890   0.65210   1.000
    H17     H    0.18890   0.81110   0.65210   1.000
    H17     H    0.34790   0.18890   0.18890   1.000
    H17     H    0.34790   0.81110   0.81110   1.000
    H17     H    0.65210   0.81110   0.18890   1.000
    H17     H    0.65210   0.18890   0.81110   1.000
    H17     H    0.18890   0.34790   0.18890   1.000
    H17     H    0.81110   0.34790   0.81110   1.000
    H17     H    0.18890   0.65210   0.81110   1.000
    H17     H    0.81110   0.65210   0.18890   1.000
    H17     H    0.68890   0.68890   0.84790   1.000
    H17     H    0.31110   0.31110   0.84790   1.000
    H17     H    0.31110   0.68890   0.15210   1.000
    H17     H    0.68890   0.31110   0.15210   1.000
    H17     H    0.84790   0.68890   0.68890   1.000
    H17     H    0.84790   0.31110   0.31110   1.000
    H17     H    0.15210   0.31110   0.68890   1.000
    H17     H    0.15210   0.68890   0.31110   1.000
    H17     H    0.68890   0.84790   0.68890   1.000
    H17     H    0.31110   0.84790   0.31110   1.000
    H17     H    0.68890   0.15210   0.31110   1.000
    H17     H    0.31110   0.15210   0.68890   1.000
    La11    La   0.35870   0.35870   0.64130   1.000
    La11    La   0.35870   0.64130   0.35870   1.000
    La11    La   0.64130   0.35870   0.35870   1.000
    La11    La   0.14130   0.14130   0.14130   1.000
    La11    La   0.85870   0.85870   0.14130   1.000
    La11    La   0.85870   0.14130   0.85870   1.000
    La11    La   0.14130   0.85870   0.85870   1.000
