# CIF file generated by openbabel 2.4.1, see http://openbabel.sf.net
data_I
_chemical_name_common '?'
_cell_length_a 12.0061
_cell_length_b 12.0061
_cell_length_c 12.0061
_cell_angle_alpha 90
_cell_angle_beta 90
_cell_angle_gamma 90
_space_group_name_H-M_alt 'P 1'
_space_group_name_Hall 'P 1'
loop_
    _symmetry_equiv_pos_as_xyz
    x,y,z
loop_
    _atom_site_label
    _atom_site_type_symbol
    _atom_site_fract_x
    _atom_site_fract_y
    _atom_site_fract_z
    _atom_site_occupancy
    B1      B    0.12310   0.12310   0.37310   1.000
    Li2     Li   0.25000   0.50000   0.00000   0.360
    La3     La   0.14168   0.14168   0.14168   1.000
    I4      I    0.38402   0.38402   0.38402   1.000
    H15     H    0.02720   0.14770   0.32950   1.000
    H16     H    0.11320   0.11320   0.47730   1.000
    H17     H    0.19030   0.19030   0.34750   1.000
    B1      B    0.87690   0.87690   0.37310   1.000
    B1      B    0.87690   0.12310   0.62690   1.000
    B1      B    0.12310   0.87690   0.62690   1.000
    B1      B    0.37310   0.12310   0.12310   1.000
    B1      B    0.37310   0.87690   0.87690   1.000
    B1      B    0.62690   0.87690   0.12310   1.000
    B1      B    0.62690   0.12310   0.87690   1.000
    B1      B    0.12310   0.37310   0.12310   1.000
    B1      B    0.87690   0.37310   0.87690   1.000
    B1      B    0.12310   0.62690   0.87690   1.000
    B1      B    0.87690   0.62690   0.12310   1.000
    B1      B    0.62310   0.62310   0.87310   1.000
    B1      B    0.37690   0.37690   0.87310   1.000
    B1      B    0.37690   0.62310   0.12690   1.000
    B1      B    0.62310   0.37690   0.12690   1.000
    B1      B    0.87310   0.62310   0.62310   1.000
    B1      B    0.87310   0.37690   0.37690   1.000
    B1      B    0.12690   0.37690   0.62310   1.000
    B1      B    0.12690   0.62310   0.37690   1.000
    B1      B    0.62310   0.87310   0.62310   1.000
    B1      B    0.37690   0.87310   0.37690   1.000
    B1      B    0.62310   0.12690   0.37690   1.000
    B1      B    0.37690   0.12690   0.62310   1.000
    Li2     Li   0.75000   0.50000   0.00000   0.360
    Li2     Li   0.00000   0.25000   0.50000   0.360
    Li2     Li   0.00000   0.75000   0.50000   0.360
    Li2     Li   0.50000   0.00000   0.25000   0.360
    Li2     Li   0.50000   0.00000   0.75000   0.360
    Li2     Li   0.50000   0.25000   0.00000   0.360
    Li2     Li   0.50000   0.75000   0.00000   0.360
    Li2     Li   0.25000   0.00000   0.50000   0.360
    Li2     Li   0.75000   0.00000   0.50000   0.360
    Li2     Li   0.00000   0.50000   0.25000   0.360
    Li2     Li   0.00000   0.50000   0.75000   0.360
    La3     La   0.85832   0.85832   0.14168   1.000
    La3     La   0.85832   0.14168   0.85832   1.000
    La3     La   0.14168   0.85832   0.85832   1.000
    La3     La   0.64168   0.64168   0.64168   1.000
    La3     La   0.35832   0.35832   0.64168   1.000
    La3     La   0.35832   0.64168   0.35832   1.000
    La3     La   0.64168   0.35832   0.35832   1.000
    I4      I    0.61598   0.61598   0.38402   1.000
    I4      I    0.61598   0.38402   0.61598   1.000
    I4      I    0.38402   0.61598   0.61598   1.000
    I4      I    0.88402   0.88402   0.88402   1.000
    I4      I    0.11598   0.11598   0.88402   1.000
    I4      I    0.11598   0.88402   0.11598   1.000
    I4      I    0.88402   0.11598   0.11598   1.000
    H15     H    0.97280   0.85230   0.32950   1.000
    H15     H    0.97280   0.14770   0.67050   1.000
    H15     H    0.02720   0.85230   0.67050   1.000
    H15     H    0.32950   0.02720   0.14770   1.000
    H15     H    0.32950   0.97280   0.85230   1.000
    H15     H    0.67050   0.97280   0.14770   1.000
    H15     H    0.67050   0.02720   0.85230   1.000
    H15     H    0.14770   0.32950   0.02720   1.000
    H15     H    0.85230   0.32950   0.97280   1.000
    H15     H    0.14770   0.67050   0.97280   1.000
    H15     H    0.85230   0.67050   0.02720   1.000
    H15     H    0.14770   0.02720   0.32950   1.000
    H15     H    0.85230   0.97280   0.32950   1.000
    H15     H    0.14770   0.97280   0.67050   1.000
    H15     H    0.85230   0.02720   0.67050   1.000
    H15     H    0.02720   0.32950   0.14770   1.000
    H15     H    0.97280   0.32950   0.85230   1.000
    H15     H    0.97280   0.67050   0.14770   1.000
    H15     H    0.02720   0.67050   0.85230   1.000
    H15     H    0.32950   0.14770   0.02720   1.000
    H15     H    0.32950   0.85230   0.97280   1.000
    H15     H    0.67050   0.14770   0.97280   1.000
    H15     H    0.67050   0.85230   0.02720   1.000
    H15     H    0.52720   0.64770   0.82950   1.000
    H15     H    0.47280   0.35230   0.82950   1.000
    H15     H    0.47280   0.64770   0.17050   1.000
    H15     H    0.52720   0.35230   0.17050   1.000
    H15     H    0.82950   0.52720   0.64770   1.000
    H15     H    0.82950   0.47280   0.35230   1.000
    H15     H    0.17050   0.47280   0.64770   1.000
    H15     H    0.17050   0.52720   0.35230   1.000
    H15     H    0.64770   0.82950   0.52720   1.000
    H15     H    0.35230   0.82950   0.47280   1.000
    H15     H    0.64770   0.17050   0.47280   1.000
    H15     H    0.35230   0.17050   0.52720   1.000
    H15     H    0.64770   0.52720   0.82950   1.000
    H15     H    0.35230   0.47280   0.82950   1.000
    H15     H    0.64770   0.47280   0.17050   1.000
    H15     H    0.35230   0.52720   0.17050   1.000
    H15     H    0.52720   0.82950   0.64770   1.000
    H15     H    0.47280   0.82950   0.35230   1.000
    H15     H    0.47280   0.17050   0.64770   1.000
    H15     H    0.52720   0.17050   0.35230   1.000
    H15     H    0.82950   0.64770   0.52720   1.000
    H15     H    0.82950   0.35230   0.47280   1.000
    H15     H    0.17050   0.64770   0.47280   1.000
    H15     H    0.17050   0.35230   0.52720   1.000
    H16     H    0.88680   0.88680   0.47730   1.000
    H16     H    0.88680   0.11320   0.52270   1.000
    H16     H    0.11320   0.88680   0.52270   1.000
    H16     H    0.47730   0.11320   0.11320   1.000
    H16     H    0.47730   0.88680   0.88680   1.000
    H16     H    0.52270   0.88680   0.11320   1.000
    H16     H    0.52270   0.11320   0.88680   1.000
    H16     H    0.11320   0.47730   0.11320   1.000
    H16     H    0.88680   0.47730   0.88680   1.000
    H16     H    0.11320   0.52270   0.88680   1.000
    H16     H    0.88680   0.52270   0.11320   1.000
    H16     H    0.61320   0.61320   0.97730   1.000
    H16     H    0.38680   0.38680   0.97730   1.000
    H16     H    0.38680   0.61320   0.02270   1.000
    H16     H    0.61320   0.38680   0.02270   1.000
    H16     H    0.97730   0.61320   0.61320   1.000
    H16     H    0.97730   0.38680   0.38680   1.000
    H16     H    0.02270   0.38680   0.61320   1.000
    H16     H    0.02270   0.61320   0.38680   1.000
    H16     H    0.61320   0.97730   0.61320   1.000
    H16     H    0.38680   0.97730   0.38680   1.000
    H16     H    0.61320   0.02270   0.38680   1.000
    H16     H    0.38680   0.02270   0.61320   1.000
    H17     H    0.80970   0.80970   0.34750   1.000
    H17     H    0.80970   0.19030   0.65250   1.000
    H17     H    0.19030   0.80970   0.65250   1.000
    H17     H    0.34750   0.19030   0.19030   1.000
    H17     H    0.34750   0.80970   0.80970   1.000
    H17     H    0.65250   0.80970   0.19030   1.000
    H17     H    0.65250   0.19030   0.80970   1.000
    H17     H    0.19030   0.34750   0.19030   1.000
    H17     H    0.80970   0.34750   0.80970   1.000
    H17     H    0.19030   0.65250   0.80970   1.000
    H17     H    0.80970   0.65250   0.19030   1.000
    H17     H    0.69030   0.69030   0.84750   1.000
    H17     H    0.30970   0.30970   0.84750   1.000
    H17     H    0.30970   0.69030   0.15250   1.000
    H17     H    0.69030   0.30970   0.15250   1.000
    H17     H    0.84750   0.69030   0.69030   1.000
    H17     H    0.84750   0.30970   0.30970   1.000
    H17     H    0.15250   0.30970   0.69030   1.000
    H17     H    0.15250   0.69030   0.30970   1.000
    H17     H    0.69030   0.84750   0.69030   1.000
    H17     H    0.30970   0.84750   0.30970   1.000
    H17     H    0.69030   0.15250   0.30970   1.000
    H17     H    0.30970   0.15250   0.69030   1.000
