# CIF file generated by openbabel 2.4.1, see http://openbabel.sf.net
data_I
_chemical_name_common 'Yttrium tetrahydridoborate'
_cell_length_a 10.8526
_cell_length_b 10.8526
_cell_length_c 10.8526
_cell_angle_alpha 90
_cell_angle_beta 90
_cell_angle_gamma 90
_space_group_name_H-M_alt 'P 1'
_space_group_name_Hall 'P 1'
loop_
    _symmetry_equiv_pos_as_xyz
    x,y,z
loop_
    _atom_site_label
    _atom_site_type_symbol
    _atom_site_fract_x
    _atom_site_fract_y
    _atom_site_fract_z
    _atom_site_occupancy
    Y1      Y    0.21790   0.21790   0.21790   1.000
    B1      B    0.19300   0.24730   0.96820   1.000
    H1      H    0.29090   0.25340   0.02430   1.000
    H2      H    0.10430   0.22570   0.03510   1.000
    H3      H    0.17520   0.34750   0.91920   1.000
    H4      H    0.20140   0.16230   0.89420   1.000
    Y1      Y    0.28210   0.78210   0.71790   1.000
    Y1      Y    0.78210   0.71790   0.28210   1.000
    Y1      Y    0.71790   0.28210   0.78210   1.000
    Y1      Y    0.78210   0.78210   0.78210   1.000
    Y1      Y    0.71790   0.21790   0.28210   1.000
    Y1      Y    0.21790   0.28210   0.71790   1.000
    Y1      Y    0.28210   0.71790   0.21790   1.000
    B1      B    0.30700   0.75270   0.46820   1.000
    B1      B    0.80700   0.74730   0.53180   1.000
    B1      B    0.69300   0.25270   0.03180   1.000
    B1      B    0.96820   0.19300   0.24730   1.000
    B1      B    0.46820   0.30700   0.75270   1.000
    B1      B    0.53180   0.80700   0.74730   1.000
    B1      B    0.03180   0.69300   0.25270   1.000
    B1      B    0.24730   0.96820   0.19300   1.000
    B1      B    0.75270   0.46820   0.30700   1.000
    B1      B    0.74730   0.53180   0.80700   1.000
    B1      B    0.25270   0.03180   0.69300   1.000
    B1      B    0.80700   0.75270   0.03180   1.000
    B1      B    0.69300   0.24730   0.53180   1.000
    B1      B    0.19300   0.25270   0.46820   1.000
    B1      B    0.30700   0.74730   0.96820   1.000
    B1      B    0.03180   0.80700   0.75270   1.000
    B1      B    0.53180   0.69300   0.24730   1.000
    B1      B    0.46820   0.19300   0.25270   1.000
    B1      B    0.96820   0.30700   0.74730   1.000
    B1      B    0.75270   0.03180   0.80700   1.000
    B1      B    0.24730   0.53180   0.69300   1.000
    B1      B    0.25270   0.46820   0.19300   1.000
    B1      B    0.74730   0.96820   0.30700   1.000
    H1      H    0.20910   0.74660   0.52430   1.000
    H1      H    0.70910   0.75340   0.47570   1.000
    H1      H    0.79090   0.24660   0.97570   1.000
    H1      H    0.02430   0.29090   0.25340   1.000
    H1      H    0.52430   0.20910   0.74660   1.000
    H1      H    0.47570   0.70910   0.75340   1.000
    H1      H    0.97570   0.79090   0.24660   1.000
    H1      H    0.25340   0.02430   0.29090   1.000
    H1      H    0.74660   0.52430   0.20910   1.000
    H1      H    0.75340   0.47570   0.70910   1.000
    H1      H    0.24660   0.97570   0.79090   1.000
    H1      H    0.70910   0.74660   0.97570   1.000
    H1      H    0.79090   0.25340   0.47570   1.000
    H1      H    0.29090   0.24660   0.52430   1.000
    H1      H    0.20910   0.75340   0.02430   1.000
    H1      H    0.97570   0.70910   0.74660   1.000
    H1      H    0.47570   0.79090   0.25340   1.000
    H1      H    0.52430   0.29090   0.24660   1.000
    H1      H    0.02430   0.20910   0.75340   1.000
    H1      H    0.74660   0.97570   0.70910   1.000
    H1      H    0.25340   0.47570   0.79090   1.000
    H1      H    0.24660   0.52430   0.29090   1.000
    H1      H    0.75340   0.02430   0.20910   1.000
    H2      H    0.39570   0.77430   0.53510   1.000
    H2      H    0.89570   0.72570   0.46490   1.000
    H2      H    0.60430   0.27430   0.96490   1.000
    H2      H    0.03510   0.10430   0.22570   1.000
    H2      H    0.53510   0.39570   0.77430   1.000
    H2      H    0.46490   0.89570   0.72570   1.000
    H2      H    0.96490   0.60430   0.27430   1.000
    H2      H    0.22570   0.03510   0.10430   1.000
    H2      H    0.77430   0.53510   0.39570   1.000
    H2      H    0.72570   0.46490   0.89570   1.000
    H2      H    0.27430   0.96490   0.60430   1.000
    H2      H    0.89570   0.77430   0.96490   1.000
    H2      H    0.60430   0.22570   0.46490   1.000
    H2      H    0.10430   0.27430   0.53510   1.000
    H2      H    0.39570   0.72570   0.03510   1.000
    H2      H    0.96490   0.89570   0.77430   1.000
    H2      H    0.46490   0.60430   0.22570   1.000
    H2      H    0.53510   0.10430   0.27430   1.000
    H2      H    0.03510   0.39570   0.72570   1.000
    H2      H    0.77430   0.96490   0.89570   1.000
    H2      H    0.22570   0.46490   0.60430   1.000
    H2      H    0.27430   0.53510   0.10430   1.000
    H2      H    0.72570   0.03510   0.39570   1.000
    H3      H    0.32480   0.65250   0.41920   1.000
    H3      H    0.82480   0.84750   0.58080   1.000
    H3      H    0.67520   0.15250   0.08080   1.000
    H3      H    0.91920   0.17520   0.34750   1.000
    H3      H    0.41920   0.32480   0.65250   1.000
    H3      H    0.58080   0.82480   0.84750   1.000
    H3      H    0.08080   0.67520   0.15250   1.000
    H3      H    0.34750   0.91920   0.17520   1.000
    H3      H    0.65250   0.41920   0.32480   1.000
    H3      H    0.84750   0.58080   0.82480   1.000
    H3      H    0.15250   0.08080   0.67520   1.000
    H3      H    0.82480   0.65250   0.08080   1.000
    H3      H    0.67520   0.34750   0.58080   1.000
    H3      H    0.17520   0.15250   0.41920   1.000
    H3      H    0.32480   0.84750   0.91920   1.000
    H3      H    0.08080   0.82480   0.65250   1.000
    H3      H    0.58080   0.67520   0.34750   1.000
    H3      H    0.41920   0.17520   0.15250   1.000
    H3      H    0.91920   0.32480   0.84750   1.000
    H3      H    0.65250   0.08080   0.82480   1.000
    H3      H    0.34750   0.58080   0.67520   1.000
    H3      H    0.15250   0.41920   0.17520   1.000
    H3      H    0.84750   0.91920   0.32480   1.000
    H4      H    0.29860   0.83770   0.39420   1.000
    H4      H    0.79860   0.66230   0.60580   1.000
    H4      H    0.70140   0.33770   0.10580   1.000
    H4      H    0.89420   0.20140   0.16230   1.000
    H4      H    0.39420   0.29860   0.83770   1.000
    H4      H    0.60580   0.79860   0.66230   1.000
    H4      H    0.10580   0.70140   0.33770   1.000
    H4      H    0.16230   0.89420   0.20140   1.000
    H4      H    0.83770   0.39420   0.29860   1.000
    H4      H    0.66230   0.60580   0.79860   1.000
    H4      H    0.33770   0.10580   0.70140   1.000
    H4      H    0.79860   0.83770   0.10580   1.000
    H4      H    0.70140   0.16230   0.60580   1.000
    H4      H    0.20140   0.33770   0.39420   1.000
    H4      H    0.29860   0.66230   0.89420   1.000
    H4      H    0.10580   0.79860   0.83770   1.000
    H4      H    0.60580   0.70140   0.16230   1.000
    H4      H    0.39420   0.20140   0.33770   1.000
    H4      H    0.89420   0.29860   0.66230   1.000
    H4      H    0.83770   0.10580   0.79860   1.000
    H4      H    0.16230   0.60580   0.70140   1.000
    H4      H    0.33770   0.39420   0.20140   1.000
    H4      H    0.66230   0.89420   0.29860   1.000
